                                  MODFLOW-2005     
      U.S. GEOLOGICAL SURVEY MODULAR FINITE-DIFFERENCE GROUND-WATER FLOW MODEL
                          VERSION 1.8.00_cfp 02/23/2011

 LIST FILE: ex.list
                         UNIT    2

 OPENING ex.dis
 FILE TYPE:DIS   UNIT   11   STATUS:OLD    
 FORMAT:FORMATTED              ACCESS:SEQUENTIAL          

 OPENING ex.bas
 FILE TYPE:BAS6   UNIT   13   STATUS:OLD    
 FORMAT:FORMATTED              ACCESS:SEQUENTIAL          

 OPENING ex.pcg
 FILE TYPE:PCG   UNIT   27   STATUS:OLD    
 FORMAT:FORMATTED              ACCESS:SEQUENTIAL          

 OPENING ex.oc
 FILE TYPE:OC   UNIT   14   STATUS:OLD    
 FORMAT:FORMATTED              ACCESS:SEQUENTIAL          

 OPENING ex.bcf
 FILE TYPE:BCF6   UNIT   15   STATUS:OLD    
 FORMAT:FORMATTED              ACCESS:SEQUENTIAL          

 OPENING ex.hds
 FILE TYPE:DATA   UNIT   52   STATUS:UNKNOWN
 FORMAT:FORMATTED              ACCESS:SEQUENTIAL          

 OPENING ex.cbc
 FILE TYPE:DATA(BINARY)   UNIT   53   STATUS:REPLACE
 FORMAT:BINARY                 ACCESS:SEQUENTIAL          

 OPENING ex.nlfp
 FILE TYPE:NLFP   UNIT   87   STATUS:OLD    
 FORMAT:FORMATTED              ACCESS:SEQUENTIAL          

 BAS -- BASIC PACKAGE, VERSION 7, 5/2/2005 INPUT READ FROM UNIT   13

 DISCRETIZATION INPUT DATA READ FROM UNIT   11
 # DIS package for MODFLOW-2005 generated by Flopy 3.3.5
   34 LAYERS        30 ROWS        30 COLUMNS
    1 STRESS PERIOD(S) IN SIMULATION
 MODEL TIME UNIT IS SECONDS
 MODEL LENGTH UNIT IS METERS
  Confining bed flag for each layer:
   0   0   0   0   0   0   0   0   0   0   0   0   0   0   0   0   0   0   0   0
   0   0   0   0   0   0   0   0   0   0   0   0   0   0



                               DELR
 READING ON UNIT   11 WITH FORMAT: (30E15.6)           



                               DELC
 READING ON UNIT   11 WITH FORMAT: (30E15.6)           

 TOP ELEVATION OF LAYER 1 =  0.480000    

   MODEL LAYER BOTTOM EL. =  0.414000     FOR LAYER   1

   MODEL LAYER BOTTOM EL. =  0.348000     FOR LAYER   2

   MODEL LAYER BOTTOM EL. =  0.282000     FOR LAYER   3

   MODEL LAYER BOTTOM EL. =  0.216000     FOR LAYER   4

   MODEL LAYER BOTTOM EL. =  0.150000     FOR LAYER   5

   MODEL LAYER BOTTOM EL. =  0.144828     FOR LAYER   6

   MODEL LAYER BOTTOM EL. =  0.139655     FOR LAYER   7

   MODEL LAYER BOTTOM EL. =  0.134483     FOR LAYER   8

   MODEL LAYER BOTTOM EL. =  0.129310     FOR LAYER   9

   MODEL LAYER BOTTOM EL. =  0.124138     FOR LAYER  10

   MODEL LAYER BOTTOM EL. =  0.118965     FOR LAYER  11

   MODEL LAYER BOTTOM EL. =  0.113793     FOR LAYER  12

   MODEL LAYER BOTTOM EL. =  0.108621     FOR LAYER  13

   MODEL LAYER BOTTOM EL. =  0.103448     FOR LAYER  14

   MODEL LAYER BOTTOM EL. =  9.827586E-02 FOR LAYER  15

   MODEL LAYER BOTTOM EL. =  9.310345E-02 FOR LAYER  16

   MODEL LAYER BOTTOM EL. =  8.793104E-02 FOR LAYER  17

   MODEL LAYER BOTTOM EL. =  8.275862E-02 FOR LAYER  18

   MODEL LAYER BOTTOM EL. =  7.758620E-02 FOR LAYER  19

   MODEL LAYER BOTTOM EL. =  7.241379E-02 FOR LAYER  20

   MODEL LAYER BOTTOM EL. =  6.724138E-02 FOR LAYER  21

   MODEL LAYER BOTTOM EL. =  6.206897E-02 FOR LAYER  22

   MODEL LAYER BOTTOM EL. =  5.689655E-02 FOR LAYER  23

   MODEL LAYER BOTTOM EL. =  5.172414E-02 FOR LAYER  24

   MODEL LAYER BOTTOM EL. =  4.655172E-02 FOR LAYER  25

   MODEL LAYER BOTTOM EL. =  4.137931E-02 FOR LAYER  26

   MODEL LAYER BOTTOM EL. =  3.620690E-02 FOR LAYER  27

   MODEL LAYER BOTTOM EL. =  3.103448E-02 FOR LAYER  28

   MODEL LAYER BOTTOM EL. =  2.586207E-02 FOR LAYER  29

   MODEL LAYER BOTTOM EL. =  2.068966E-02 FOR LAYER  30

   MODEL LAYER BOTTOM EL. =  1.551724E-02 FOR LAYER  31

   MODEL LAYER BOTTOM EL. =  1.034483E-02 FOR LAYER  32

   MODEL LAYER BOTTOM EL. =  5.172414E-03 FOR LAYER  33

   MODEL LAYER BOTTOM EL. =   0.00000     FOR LAYER  34


 STRESS PERIOD     LENGTH       TIME STEPS     MULTIPLIER FOR DELT    SS FLAG
 ----------------------------------------------------------------------------
        1         1.000000          1                    1.000         SS

 STEADY-STATE SIMULATION



 
 # BAS6 package for MODFLOW-2005 generated by Flopy 3.3.5                        
 THE FREE FORMAT OPTION HAS BEEN SELECTED



                     BOUNDARY ARRAY FOR LAYER   1
 READING ON UNIT   13 WITH FORMAT: (30I10)             



                     BOUNDARY ARRAY FOR LAYER   2
 READING ON UNIT   13 WITH FORMAT: (30I10)             



                     BOUNDARY ARRAY FOR LAYER   3
 READING ON UNIT   13 WITH FORMAT: (30I10)             



                     BOUNDARY ARRAY FOR LAYER   4
 READING ON UNIT   13 WITH FORMAT: (30I10)             



                     BOUNDARY ARRAY FOR LAYER   5
 READING ON UNIT   13 WITH FORMAT: (30I10)             



                     BOUNDARY ARRAY FOR LAYER   6
 READING ON UNIT   13 WITH FORMAT: (30I10)             



                     BOUNDARY ARRAY FOR LAYER   7
 READING ON UNIT   13 WITH FORMAT: (30I10)             



                     BOUNDARY ARRAY FOR LAYER   8
 READING ON UNIT   13 WITH FORMAT: (30I10)             



                     BOUNDARY ARRAY FOR LAYER   9
 READING ON UNIT   13 WITH FORMAT: (30I10)             



                     BOUNDARY ARRAY FOR LAYER  10
 READING ON UNIT   13 WITH FORMAT: (30I10)             



                     BOUNDARY ARRAY FOR LAYER  11
 READING ON UNIT   13 WITH FORMAT: (30I10)             



                     BOUNDARY ARRAY FOR LAYER  12
 READING ON UNIT   13 WITH FORMAT: (30I10)             



                     BOUNDARY ARRAY FOR LAYER  13
 READING ON UNIT   13 WITH FORMAT: (30I10)             



                     BOUNDARY ARRAY FOR LAYER  14
 READING ON UNIT   13 WITH FORMAT: (30I10)             



                     BOUNDARY ARRAY FOR LAYER  15
 READING ON UNIT   13 WITH FORMAT: (30I10)             



                     BOUNDARY ARRAY FOR LAYER  16
 READING ON UNIT   13 WITH FORMAT: (30I10)             



                     BOUNDARY ARRAY FOR LAYER  17
 READING ON UNIT   13 WITH FORMAT: (30I10)             



                     BOUNDARY ARRAY FOR LAYER  18
 READING ON UNIT   13 WITH FORMAT: (30I10)             



                     BOUNDARY ARRAY FOR LAYER  19
 READING ON UNIT   13 WITH FORMAT: (30I10)             



                     BOUNDARY ARRAY FOR LAYER  20
 READING ON UNIT   13 WITH FORMAT: (30I10)             



                     BOUNDARY ARRAY FOR LAYER  21
 READING ON UNIT   13 WITH FORMAT: (30I10)             



                     BOUNDARY ARRAY FOR LAYER  22
 READING ON UNIT   13 WITH FORMAT: (30I10)             



                     BOUNDARY ARRAY FOR LAYER  23
 READING ON UNIT   13 WITH FORMAT: (30I10)             



                     BOUNDARY ARRAY FOR LAYER  24
 READING ON UNIT   13 WITH FORMAT: (30I10)             



                     BOUNDARY ARRAY FOR LAYER  25
 READING ON UNIT   13 WITH FORMAT: (30I10)             



                     BOUNDARY ARRAY FOR LAYER  26
 READING ON UNIT   13 WITH FORMAT: (30I10)             



                     BOUNDARY ARRAY FOR LAYER  27
 READING ON UNIT   13 WITH FORMAT: (30I10)             



                     BOUNDARY ARRAY FOR LAYER  28
 READING ON UNIT   13 WITH FORMAT: (30I10)             



                     BOUNDARY ARRAY FOR LAYER  29
 READING ON UNIT   13 WITH FORMAT: (30I10)             



                     BOUNDARY ARRAY FOR LAYER  30
 READING ON UNIT   13 WITH FORMAT: (30I10)             



                     BOUNDARY ARRAY FOR LAYER  31
 READING ON UNIT   13 WITH FORMAT: (30I10)             



                     BOUNDARY ARRAY FOR LAYER  32
 READING ON UNIT   13 WITH FORMAT: (30I10)             



                     BOUNDARY ARRAY FOR LAYER  33
 READING ON UNIT   13 WITH FORMAT: (30I10)             



                     BOUNDARY ARRAY FOR LAYER  34
 READING ON UNIT   13 WITH FORMAT: (30I10)             

 AQUIFER HEAD WILL BE SET TO  -999.99     AT ALL NO-FLOW NODES (IBOUND=0).



                       INITIAL HEAD FOR LAYER   1
 READING ON UNIT   13 WITH FORMAT: (30E15.6)           



                       INITIAL HEAD FOR LAYER   2
 READING ON UNIT   13 WITH FORMAT: (30E15.6)           



                       INITIAL HEAD FOR LAYER   3
 READING ON UNIT   13 WITH FORMAT: (30E15.6)           



                       INITIAL HEAD FOR LAYER   4
 READING ON UNIT   13 WITH FORMAT: (30E15.6)           



                       INITIAL HEAD FOR LAYER   5
 READING ON UNIT   13 WITH FORMAT: (30E15.6)           



                       INITIAL HEAD FOR LAYER   6
 READING ON UNIT   13 WITH FORMAT: (30E15.6)           



                       INITIAL HEAD FOR LAYER   7
 READING ON UNIT   13 WITH FORMAT: (30E15.6)           



                       INITIAL HEAD FOR LAYER   8
 READING ON UNIT   13 WITH FORMAT: (30E15.6)           



                       INITIAL HEAD FOR LAYER   9
 READING ON UNIT   13 WITH FORMAT: (30E15.6)           



                       INITIAL HEAD FOR LAYER  10
 READING ON UNIT   13 WITH FORMAT: (30E15.6)           



                       INITIAL HEAD FOR LAYER  11
 READING ON UNIT   13 WITH FORMAT: (30E15.6)           



                       INITIAL HEAD FOR LAYER  12
 READING ON UNIT   13 WITH FORMAT: (30E15.6)           



                       INITIAL HEAD FOR LAYER  13
 READING ON UNIT   13 WITH FORMAT: (30E15.6)           



                       INITIAL HEAD FOR LAYER  14
 READING ON UNIT   13 WITH FORMAT: (30E15.6)           



                       INITIAL HEAD FOR LAYER  15
 READING ON UNIT   13 WITH FORMAT: (30E15.6)           



                       INITIAL HEAD FOR LAYER  16
 READING ON UNIT   13 WITH FORMAT: (30E15.6)           



                       INITIAL HEAD FOR LAYER  17
 READING ON UNIT   13 WITH FORMAT: (30E15.6)           



                       INITIAL HEAD FOR LAYER  18
 READING ON UNIT   13 WITH FORMAT: (30E15.6)           



                       INITIAL HEAD FOR LAYER  19
 READING ON UNIT   13 WITH FORMAT: (30E15.6)           



                       INITIAL HEAD FOR LAYER  20
 READING ON UNIT   13 WITH FORMAT: (30E15.6)           



                       INITIAL HEAD FOR LAYER  21
 READING ON UNIT   13 WITH FORMAT: (30E15.6)           



                       INITIAL HEAD FOR LAYER  22
 READING ON UNIT   13 WITH FORMAT: (30E15.6)           



                       INITIAL HEAD FOR LAYER  23
 READING ON UNIT   13 WITH FORMAT: (30E15.6)           



                       INITIAL HEAD FOR LAYER  24
 READING ON UNIT   13 WITH FORMAT: (30E15.6)           



                       INITIAL HEAD FOR LAYER  25
 READING ON UNIT   13 WITH FORMAT: (30E15.6)           



                       INITIAL HEAD FOR LAYER  26
 READING ON UNIT   13 WITH FORMAT: (30E15.6)           



                       INITIAL HEAD FOR LAYER  27
 READING ON UNIT   13 WITH FORMAT: (30E15.6)           



                       INITIAL HEAD FOR LAYER  28
 READING ON UNIT   13 WITH FORMAT: (30E15.6)           



                       INITIAL HEAD FOR LAYER  29
 READING ON UNIT   13 WITH FORMAT: (30E15.6)           



                       INITIAL HEAD FOR LAYER  30
 READING ON UNIT   13 WITH FORMAT: (30E15.6)           



                       INITIAL HEAD FOR LAYER  31
 READING ON UNIT   13 WITH FORMAT: (30E15.6)           



                       INITIAL HEAD FOR LAYER  32
 READING ON UNIT   13 WITH FORMAT: (30E15.6)           



                       INITIAL HEAD FOR LAYER  33
 READING ON UNIT   13 WITH FORMAT: (30E15.6)           



                       INITIAL HEAD FOR LAYER  34
 READING ON UNIT   13 WITH FORMAT: (30E15.6)           
 # OC package for MODFLOW-2005 generated by Flopy 3.3.5

 OUTPUT CONTROL IS SPECIFIED ONLY AT TIME STEPS FOR WHICH OUTPUT IS DESIRED
 HEADS WILL BE SAVED WITH FORMAT: (1000f10.4)         
 SAVED HEADS WILL BE LABELED
 HEAD PRINT FORMAT CODE IS   0    DRAWDOWN PRINT FORMAT CODE IS   0
 HEADS WILL BE SAVED ON UNIT   52    DRAWDOWNS WILL BE SAVED ON UNIT    0

 BCF -- BLOCK-CENTERED FLOW PACKAGE, VERSION 7, 5/2/2005
         INPUT READ FROM UNIT 15
 STEADY-STATE SIMULATION
 CELL-BY-CELL FLOWS WILL BE SAVED ON UNIT 53
 HEAD AT CELLS THAT CONVERT TO DRY= -0.10000E+31
 WETTING CAPABILITY IS NOT ACTIVE
      LAYER  LAYER-TYPE CODE     INTERBLOCK T
      --------------------------------------------
         1            0          0 -- HARMONIC    
         2            0          0 -- HARMONIC    
         3            0          0 -- HARMONIC    
         4            0          0 -- HARMONIC    
         5            0          0 -- HARMONIC    
         6            0          0 -- HARMONIC    
         7            0          0 -- HARMONIC    
         8            0          0 -- HARMONIC    
         9            0          0 -- HARMONIC    
        10            0          0 -- HARMONIC    
        11            0          0 -- HARMONIC    
        12            0          0 -- HARMONIC    
        13            0          0 -- HARMONIC    
        14            0          0 -- HARMONIC    
        15            0          0 -- HARMONIC    
        16            0          0 -- HARMONIC    
        17            0          0 -- HARMONIC    
        18            0          0 -- HARMONIC    
        19            0          0 -- HARMONIC    
        20            0          0 -- HARMONIC    
        21            0          0 -- HARMONIC    
        22            0          0 -- HARMONIC    
        23            0          0 -- HARMONIC    
        24            0          0 -- HARMONIC    
        25            0          0 -- HARMONIC    
        26            0          0 -- HARMONIC    
        27            0          0 -- HARMONIC    
        28            0          0 -- HARMONIC    
        29            0          0 -- HARMONIC    
        30            0          0 -- HARMONIC    
        31            0          0 -- HARMONIC    
        32            0          0 -- HARMONIC    
        33            0          0 -- HARMONIC    
        34            0          0 -- HARMONIC    

 COLUMN TO ROW ANISOTROPY =   1.00000    



               TRANSMIS. ALONG ROWS FOR LAYER   1
 READING ON UNIT   15 WITH FORMAT: (30E15.6)           



           VERT HYD COND /THICKNESS FOR LAYER   1
 READING ON UNIT   15 WITH FORMAT: (30E15.6)           



               TRANSMIS. ALONG ROWS FOR LAYER   2
 READING ON UNIT   15 WITH FORMAT: (30E15.6)           



           VERT HYD COND /THICKNESS FOR LAYER   2
 READING ON UNIT   15 WITH FORMAT: (30E15.6)           



               TRANSMIS. ALONG ROWS FOR LAYER   3
 READING ON UNIT   15 WITH FORMAT: (30E15.6)           



           VERT HYD COND /THICKNESS FOR LAYER   3
 READING ON UNIT   15 WITH FORMAT: (30E15.6)           



               TRANSMIS. ALONG ROWS FOR LAYER   4
 READING ON UNIT   15 WITH FORMAT: (30E15.6)           



           VERT HYD COND /THICKNESS FOR LAYER   4
 READING ON UNIT   15 WITH FORMAT: (30E15.6)           



               TRANSMIS. ALONG ROWS FOR LAYER   5
 READING ON UNIT   15 WITH FORMAT: (30E15.6)           



           VERT HYD COND /THICKNESS FOR LAYER   5
 READING ON UNIT   15 WITH FORMAT: (30E15.6)           



               TRANSMIS. ALONG ROWS FOR LAYER   6
 READING ON UNIT   15 WITH FORMAT: (30E15.6)           



           VERT HYD COND /THICKNESS FOR LAYER   6
 READING ON UNIT   15 WITH FORMAT: (30E15.6)           



               TRANSMIS. ALONG ROWS FOR LAYER   7
 READING ON UNIT   15 WITH FORMAT: (30E15.6)           



           VERT HYD COND /THICKNESS FOR LAYER   7
 READING ON UNIT   15 WITH FORMAT: (30E15.6)           



               TRANSMIS. ALONG ROWS FOR LAYER   8
 READING ON UNIT   15 WITH FORMAT: (30E15.6)           



           VERT HYD COND /THICKNESS FOR LAYER   8
 READING ON UNIT   15 WITH FORMAT: (30E15.6)           



               TRANSMIS. ALONG ROWS FOR LAYER   9
 READING ON UNIT   15 WITH FORMAT: (30E15.6)           



           VERT HYD COND /THICKNESS FOR LAYER   9
 READING ON UNIT   15 WITH FORMAT: (30E15.6)           



               TRANSMIS. ALONG ROWS FOR LAYER  10
 READING ON UNIT   15 WITH FORMAT: (30E15.6)           



           VERT HYD COND /THICKNESS FOR LAYER  10
 READING ON UNIT   15 WITH FORMAT: (30E15.6)           



               TRANSMIS. ALONG ROWS FOR LAYER  11
 READING ON UNIT   15 WITH FORMAT: (30E15.6)           



           VERT HYD COND /THICKNESS FOR LAYER  11
 READING ON UNIT   15 WITH FORMAT: (30E15.6)           



               TRANSMIS. ALONG ROWS FOR LAYER  12
 READING ON UNIT   15 WITH FORMAT: (30E15.6)           



           VERT HYD COND /THICKNESS FOR LAYER  12
 READING ON UNIT   15 WITH FORMAT: (30E15.6)           



               TRANSMIS. ALONG ROWS FOR LAYER  13
 READING ON UNIT   15 WITH FORMAT: (30E15.6)           



           VERT HYD COND /THICKNESS FOR LAYER  13
 READING ON UNIT   15 WITH FORMAT: (30E15.6)           



               TRANSMIS. ALONG ROWS FOR LAYER  14
 READING ON UNIT   15 WITH FORMAT: (30E15.6)           



           VERT HYD COND /THICKNESS FOR LAYER  14
 READING ON UNIT   15 WITH FORMAT: (30E15.6)           



               TRANSMIS. ALONG ROWS FOR LAYER  15
 READING ON UNIT   15 WITH FORMAT: (30E15.6)           



           VERT HYD COND /THICKNESS FOR LAYER  15
 READING ON UNIT   15 WITH FORMAT: (30E15.6)           



               TRANSMIS. ALONG ROWS FOR LAYER  16
 READING ON UNIT   15 WITH FORMAT: (30E15.6)           



           VERT HYD COND /THICKNESS FOR LAYER  16
 READING ON UNIT   15 WITH FORMAT: (30E15.6)           



               TRANSMIS. ALONG ROWS FOR LAYER  17
 READING ON UNIT   15 WITH FORMAT: (30E15.6)           



           VERT HYD COND /THICKNESS FOR LAYER  17
 READING ON UNIT   15 WITH FORMAT: (30E15.6)           



               TRANSMIS. ALONG ROWS FOR LAYER  18
 READING ON UNIT   15 WITH FORMAT: (30E15.6)           



           VERT HYD COND /THICKNESS FOR LAYER  18
 READING ON UNIT   15 WITH FORMAT: (30E15.6)           



               TRANSMIS. ALONG ROWS FOR LAYER  19
 READING ON UNIT   15 WITH FORMAT: (30E15.6)           



           VERT HYD COND /THICKNESS FOR LAYER  19
 READING ON UNIT   15 WITH FORMAT: (30E15.6)           



               TRANSMIS. ALONG ROWS FOR LAYER  20
 READING ON UNIT   15 WITH FORMAT: (30E15.6)           



           VERT HYD COND /THICKNESS FOR LAYER  20
 READING ON UNIT   15 WITH FORMAT: (30E15.6)           



               TRANSMIS. ALONG ROWS FOR LAYER  21
 READING ON UNIT   15 WITH FORMAT: (30E15.6)           



           VERT HYD COND /THICKNESS FOR LAYER  21
 READING ON UNIT   15 WITH FORMAT: (30E15.6)           



               TRANSMIS. ALONG ROWS FOR LAYER  22
 READING ON UNIT   15 WITH FORMAT: (30E15.6)           



           VERT HYD COND /THICKNESS FOR LAYER  22
 READING ON UNIT   15 WITH FORMAT: (30E15.6)           



               TRANSMIS. ALONG ROWS FOR LAYER  23
 READING ON UNIT   15 WITH FORMAT: (30E15.6)           



           VERT HYD COND /THICKNESS FOR LAYER  23
 READING ON UNIT   15 WITH FORMAT: (30E15.6)           



               TRANSMIS. ALONG ROWS FOR LAYER  24
 READING ON UNIT   15 WITH FORMAT: (30E15.6)           



           VERT HYD COND /THICKNESS FOR LAYER  24
 READING ON UNIT   15 WITH FORMAT: (30E15.6)           



               TRANSMIS. ALONG ROWS FOR LAYER  25
 READING ON UNIT   15 WITH FORMAT: (30E15.6)           



           VERT HYD COND /THICKNESS FOR LAYER  25
 READING ON UNIT   15 WITH FORMAT: (30E15.6)           



               TRANSMIS. ALONG ROWS FOR LAYER  26
 READING ON UNIT   15 WITH FORMAT: (30E15.6)           



           VERT HYD COND /THICKNESS FOR LAYER  26
 READING ON UNIT   15 WITH FORMAT: (30E15.6)           



               TRANSMIS. ALONG ROWS FOR LAYER  27
 READING ON UNIT   15 WITH FORMAT: (30E15.6)           



           VERT HYD COND /THICKNESS FOR LAYER  27
 READING ON UNIT   15 WITH FORMAT: (30E15.6)           



               TRANSMIS. ALONG ROWS FOR LAYER  28
 READING ON UNIT   15 WITH FORMAT: (30E15.6)           



           VERT HYD COND /THICKNESS FOR LAYER  28
 READING ON UNIT   15 WITH FORMAT: (30E15.6)           



               TRANSMIS. ALONG ROWS FOR LAYER  29
 READING ON UNIT   15 WITH FORMAT: (30E15.6)           



           VERT HYD COND /THICKNESS FOR LAYER  29
 READING ON UNIT   15 WITH FORMAT: (30E15.6)           



               TRANSMIS. ALONG ROWS FOR LAYER  30
 READING ON UNIT   15 WITH FORMAT: (30E15.6)           



           VERT HYD COND /THICKNESS FOR LAYER  30
 READING ON UNIT   15 WITH FORMAT: (30E15.6)           



               TRANSMIS. ALONG ROWS FOR LAYER  31
 READING ON UNIT   15 WITH FORMAT: (30E15.6)           



           VERT HYD COND /THICKNESS FOR LAYER  31
 READING ON UNIT   15 WITH FORMAT: (30E15.6)           



               TRANSMIS. ALONG ROWS FOR LAYER  32
 READING ON UNIT   15 WITH FORMAT: (30E15.6)           



           VERT HYD COND /THICKNESS FOR LAYER  32
 READING ON UNIT   15 WITH FORMAT: (30E15.6)           



               TRANSMIS. ALONG ROWS FOR LAYER  33
 READING ON UNIT   15 WITH FORMAT: (30E15.6)           



           VERT HYD COND /THICKNESS FOR LAYER  33
 READING ON UNIT   15 WITH FORMAT: (30E15.6)           



               TRANSMIS. ALONG ROWS FOR LAYER  34
 READING ON UNIT   15 WITH FORMAT: (30E15.6)           

 PCG -- CONJUGATE-GRADIENT SOLUTION PACKAGE, VERSION 7, 5/2/2005
 # PCG package for MODFLOW-2005 generated by Flopy 3.3.5
 MAXIMUM OF    200 CALLS OF SOLUTION ROUTINE
 MAXIMUM OF    100 INTERNAL ITERATIONS PER CALL TO SOLUTION ROUTINE
 MATRIX PRECONDITIONING TYPE :    1



                                    SOLUTION BY THE CONJUGATE-GRADIENT METHOD
                                   -------------------------------------------
                    MAXIMUM NUMBER OF CALLS TO PCG ROUTINE =      200
                        MAXIMUM ITERATIONS PER CALL TO PCG =      100
                               MATRIX PRECONDITIONING TYPE =        1
        RELAXATION FACTOR (ONLY USED WITH PRECOND. TYPE 1) =    0.97000E+00
 PARAMETER OF POLYNOMIAL PRECOND. = 2 (2) OR IS CALCULATED :        0
                         HEAD CHANGE CRITERION FOR CLOSURE =    0.10000E-06
                     RESIDUAL CHANGE CRITERION FOR CLOSURE =    0.10000E-06
            PCG HEAD AND RESIDUAL CHANGE PRINTOUT INTERVAL =      999
     PRINTING FROM SOLVER IS LIMITED(1) OR SUPPRESSED (>1) =        3
                            STEADY-STATE DAMPING PARAMETER =    0.10000E+01
                               TRANSIENT DAMPING PARAMETER =    0.10000E+01
 
 NLFP1AR READING FROM UNIT          87
 ---------------------------------
 NLFP IS ACTIVE (LAYERS) 
 ---------------------------------
 Forchheimer convergence criteria  9.9999997E-05

 BthroughA Forchheimer    =  6.590000E-04 FOR LAYER   1

 BthroughA Forchheimer    =  6.590000E-04 FOR LAYER   2

 BthroughA Forchheimer    =  6.590000E-04 FOR LAYER   3

 BthroughA Forchheimer    =  6.590000E-04 FOR LAYER   4

 BthroughA Forchheimer    =  6.590000E-04 FOR LAYER   5

 BthroughA Forchheimer    =  6.590000E-04 FOR LAYER   6

 BthroughA Forchheimer    =  6.590000E-04 FOR LAYER   7

 BthroughA Forchheimer    =  6.590000E-04 FOR LAYER   8

 BthroughA Forchheimer    =  6.590000E-04 FOR LAYER   9

 BthroughA Forchheimer    =  6.590000E-04 FOR LAYER  10

 BthroughA Forchheimer    =  6.590000E-04 FOR LAYER  11

 BthroughA Forchheimer    =  6.590000E-04 FOR LAYER  12

 BthroughA Forchheimer    =  6.590000E-04 FOR LAYER  13

 BthroughA Forchheimer    =  6.590000E-04 FOR LAYER  14

 BthroughA Forchheimer    =  6.590000E-04 FOR LAYER  15

 BthroughA Forchheimer    =  6.590000E-04 FOR LAYER  16

 BthroughA Forchheimer    =  6.590000E-04 FOR LAYER  17

 BthroughA Forchheimer    =  6.590000E-04 FOR LAYER  18

 BthroughA Forchheimer    =  6.590000E-04 FOR LAYER  19

 BthroughA Forchheimer    =  6.590000E-04 FOR LAYER  20

 BthroughA Forchheimer    =  6.590000E-04 FOR LAYER  21

 BthroughA Forchheimer    =  6.590000E-04 FOR LAYER  22

 BthroughA Forchheimer    =  6.590000E-04 FOR LAYER  23

 BthroughA Forchheimer    =  6.590000E-04 FOR LAYER  24

 BthroughA Forchheimer    =  6.590000E-04 FOR LAYER  25

 BthroughA Forchheimer    =  6.590000E-04 FOR LAYER  26

 BthroughA Forchheimer    =  6.590000E-04 FOR LAYER  27

 BthroughA Forchheimer    =  6.590000E-04 FOR LAYER  28

 BthroughA Forchheimer    =  6.590000E-04 FOR LAYER  29

 BthroughA Forchheimer    =  6.590000E-04 FOR LAYER  30

 BthroughA Forchheimer    =  6.590000E-04 FOR LAYER  31

 BthroughA Forchheimer    =  6.590000E-04 FOR LAYER  32

 BthroughA Forchheimer    =  6.590000E-04 FOR LAYER  33

 BthroughA Forchheimer    =  6.590000E-04 FOR LAYER  34
1
                            STRESS PERIOD NO.    1, LENGTH =   1.000000    
                            -----------------------------------------------

                              NUMBER OF TIME STEPS =     1

                               MULTIPLIER FOR DELT =     1.000

                            INITIAL TIME STEP SIZE =   1.000000    
 
 SOLVING FOR HEAD 

 OUTPUT CONTROL FOR STRESS PERIOD    1   TIME STEP   1
    SAVE HEAD FOR ALL LAYERS
    PRINT BUDGET
    SAVE BUDGET
 UBUDSV SAVING "   CONSTANT HEAD" ON UNIT 53 AT TIME STEP  1, STRESS PERIOD    1
 UBUDSV SAVING "FLOW RIGHT FACE " ON UNIT 53 AT TIME STEP  1, STRESS PERIOD    1
 UBUDSV SAVING "FLOW FRONT FACE " ON UNIT 53 AT TIME STEP  1, STRESS PERIOD    1
 UBUDSV SAVING "FLOW LOWER FACE " ON UNIT 53 AT TIME STEP  1, STRESS PERIOD    1

 HEAD WILL BE SAVED ON UNIT   52 AT END OF TIME STEP   1, STRESS PERIOD    1
1
  VOLUMETRIC BUDGET FOR ENTIRE MODEL AT END OF TIME STEP  1 IN STRESS PERIOD   1
  ------------------------------------------------------------------------------

     CUMULATIVE VOLUMES      L**3       RATES FOR THIS TIME STEP      L**3/T
     ------------------                 ------------------------

           IN:                                      IN:
           ---                                      ---
             STORAGE =           0.0000               STORAGE =           0.0000
       CONSTANT HEAD =       5.2099E-07         CONSTANT HEAD =       5.2099E-07

            TOTAL IN =       5.2099E-07              TOTAL IN =       5.2099E-07

          OUT:                                     OUT:
          ----                                     ----
             STORAGE =           0.0000               STORAGE =           0.0000
       CONSTANT HEAD =       5.2126E-07         CONSTANT HEAD =       5.2126E-07

           TOTAL OUT =       5.2126E-07             TOTAL OUT =       5.2126E-07

            IN - OUT =      -2.6193E-10              IN - OUT =      -2.6193E-10

 PERCENT DISCREPANCY =          -0.05     PERCENT DISCREPANCY =          -0.05






          TIME SUMMARY AT END OF TIME STEP   1 IN STRESS PERIOD    1
                    SECONDS     MINUTES      HOURS       DAYS        YEARS
                    -----------------------------------------------------------
   TIME STEP LENGTH  1.0000     1.66667E-02 2.77778E-04 1.15741E-05 3.16881E-08
 STRESS PERIOD TIME  1.0000     1.66667E-02 2.77778E-04 1.15741E-05 3.16881E-08
         TOTAL TIME  1.0000     1.66667E-02 2.77778E-04 1.15741E-05 3.16881E-08
1

 Run end date and time (yyyy/mm/dd hh:mm:ss): 2022/04/11 17:31:31
 Elapsed run time:  0.199 Seconds

